21
 
 C     6.08931446      -2.32913589      -0.00000000
 C     7.36170053      -1.94905519      -0.00000000
 C     7.58901453     -0.490464836      -0.00000000
 C     6.60161543      0.430175424       0.00000000
 C     5.17653990       0.00000000       0.00000000
 C     4.94905853      -1.38563609       0.00000000
 C     3.64538741      -1.87592196       0.00000000
 C     2.57893395     -0.992492914       0.00000000
 C     2.82016468      0.377931148       0.00000000
 N     4.09819889      0.873668671       0.00000000
 H     5.87319374      -3.39448309      -0.00000000
 H     8.61839867     -0.138884068      -0.00000000
 H     6.89173651       1.47039402       0.00000000
 H     3.45904303      -2.94230080      -0.00000000
 H     1.56392336      -1.36640048       0.00000000
 H     1.97202277       1.05303478       0.00000000
 O     8.34054947      -2.63978148      -0.00000000
 C     4.21592093       2.34162164       0.00000000
 H     5.24529171       2.72809887       0.00000000
 H     3.70605588       2.75303793      0.898880005
 H     3.70605588       2.75303793     -0.898880005
